data_POSCAR
  _audit_creation_date              2014-09-24
  _audit_creation_method            'ToBaCCo'
  _symmetry_space_group_name_H-M    'P1'
  _symmetry_Int_Tables_number       1
  _symmetry_cell_setting            triclinic
  loop_
  _symmetry_equiv_pos_as_xyz
 x,y,z
_cell_length_a 30.6926
_cell_length_b 30.5613
_cell_length_c 30.5598
_cell_angle_alpha 90.002600
_cell_angle_beta 89.912100
_cell_angle_gamma 89.920700
loop_
  _atom_site_label
  _atom_site_type_symbol
  _atom_site_fract_x
  _atom_site_fract_y
  _atom_site_fract_z
C1 C 0.18613 1.24339 0.18676
 C2 C 0.16704 1.22512 0.22425
 C3 C 0.18530 1.18772 0.24353
 C4 C 0.22280 1.16873 0.22536
 C5 C 0.24191 1.18695 0.18791
 C6 C 0.22362 1.22431 0.16868
 H7 H 0.13752 1.23935 0.23779
 H8 H 0.23654 1.13929 0.23966
 H9 H 0.23800 1.23783 0.13917
 C10 C 0.81438 0.75527 0.18676
 C11 C 0.77684 0.77367 0.16817
 C12 C 0.75792 0.81103 0.18682
 C13 C 0.77642 0.82992 0.22420
 C14 C 0.81392 0.81159 0.24283
 C15 C 0.83282 0.77423 0.22417
 H16 H 0.76296 0.75963 0.13872
 H17 H 0.76230 0.85936 0.23811
 H18 H 0.86236 0.76062 0.23816
 C19 C 0.81358 1.24337 -0.18626
 C20 C 0.83204 1.22456 -0.22383
 C21 C 0.81324 1.18719 -0.24252
 C22 C 0.77584 1.16875 -0.22369
 C23 C 0.75737 1.18752 -0.18616
 C24 C 0.77618 1.22485 -0.16752
 H25 H 0.86149 1.23837 -0.23787
 H26 H 0.76170 1.13933 -0.23754
 H27 H 0.76229 1.23878 -0.13795
 C28 C 0.18670 0.75790 -0.18897
 C29 C 0.16809 0.77696 -0.22623
 C30 C 0.18671 0.81456 -0.24470
 C31 C 0.22411 0.83292 -0.22592
 C32 C 0.24274 0.81388 -0.18866
 C33 C 0.22407 0.77632 -0.17026
 H34 H 0.13865 0.76314 -0.24013
 H35 H 0.23813 0.86251 -0.23958
 H36 H 0.23795 0.76210 -0.14090
 C37 C 0.56650 1.05989 -0.01178
 H38 H 0.56707 1.05956 0.02362
 C39 C 0.59673 1.08498 -0.03490
 H40 H 0.62060 1.10421 -0.01731
 C41 C 0.53574 1.03395 -0.07805
 H42 H 0.51262 1.01325 -0.09473
 C43 C 0.56546 1.05858 -0.10246
 H44 H 0.56488 1.05706 -0.13787
 N45 N 0.53676 1.03512 -0.03352
 C46 C 0.43340 1.01179 0.06161
 H47 H 0.43281 0.97640 0.06136
 C48 C 0.40312 1.03497 0.08667
 H49 H 0.37919 1.01743 0.10595
 C50 C 0.46421 1.07800 0.03549
 H51 H 0.48737 1.09463 0.01471
 C52 C 0.43445 1.10246 0.06008
 H53 H 0.43502 1.13787 0.05846
 Zn54 Zn 0.49996 0.99918 0.00073
 N55 N 0.46318 1.03348 0.03675
 C56 C 0.53567 0.96432 0.07943
 N57 N 0.53669 0.96311 0.03490
 C58 C 0.56644 0.93825 0.01309
 C59 C 0.59669 0.91314 0.03614
 C60 C 0.56541 0.93968 0.10377
 C61 C 0.43349 0.98692 -0.06004
 C62 C 0.40329 0.96392 -0.08519
 C63 C 0.43452 0.89624 -0.05883
 C64 C 0.46421 0.92052 -0.03415
 N65 N 0.46320 0.96505 -0.03526
 H66 H 0.51253 0.98510 0.09615
 H67 H 0.56701 0.93855 -0.02231
 H68 H 0.62060 0.89386 0.01849
 H69 H 0.56485 0.94125 0.13918
 H70 H 0.43293 1.02231 -0.05967
 H71 H 0.37945 0.98161 -0.10443
 H72 H 0.43509 0.86082 -0.05736
 H73 H 0.48731 0.90376 -0.01344
 C74 C 0.40351 1.08071 0.08570
 C75 C 0.59633 1.08414 -0.08064
 C76 C 0.40368 0.91818 -0.08440
 C77 C 0.59632 0.91405 0.08188
 C78 C -0.01219 0.56623 1.05987
 H79 H 0.02305 0.56688 1.05963
 C80 C -0.03537 0.59654 1.08496
 H81 H -0.01797 0.62055 1.10426
 C82 C -0.07802 0.53519 1.03377
 H83 H -0.09450 0.51191 1.01300
 C84 C -0.10247 0.56498 1.05838
 H85 H -0.13772 0.56431 1.05680
 N86 N -0.03369 0.53630 1.03503
 C87 C 0.06126 0.43259 1.01199
 H88 H 0.06116 0.43192 0.97659
 C89 C 0.08618 0.40229 1.03527
 H90 H 0.10551 0.37826 1.01779
 C91 C 0.03492 0.46363 1.07811
 H92 H 0.01412 0.48688 1.09466
 C93 C 0.05936 0.43385 1.10266
 H94 H 0.05761 0.43451 1.13806
 Zn95 Zn 0.00062 0.49935 0.99918
 N96 N 0.03637 0.46249 1.03359
 C97 C 0.07912 0.53522 0.96454
 N98 N 0.03479 0.53624 0.96323
 C99 C 0.01316 0.56608 0.93833
 C100 C 0.03621 0.59643 0.91325
 C101 C 0.10345 0.56506 0.93994
 C102 C -0.05977 0.43251 0.98665
 C103 C -0.08471 0.40219 0.96352
 C104 C -0.05819 0.43358 0.89597
 C105 C -0.03371 0.46339 0.92037
 N106 N -0.03502 0.46236 0.96490
 H107 H 0.09569 0.51202 0.98536
 H108 H -0.02208 0.56666 0.93854
 H109 H 0.01872 0.62039 0.89392
 H110 H 0.13870 0.56449 0.94158
 H111 H -0.05956 0.43194 1.02204
 H112 H -0.10395 0.37824 0.98112
 H113 H -0.05658 0.43417 0.86056
 H114 H -0.01303 0.48661 0.90370
 C115 C 0.08504 0.40279 1.08100
 C116 C -0.08090 0.59603 1.08403
 C117 C -0.08375 0.40260 0.91779
 C118 C 0.08175 0.59605 0.91425
 C119 C 1.06003 -0.01125 0.56690
 H120 H 1.05975 0.02414 0.56758
 C121 C 1.08509 -0.03448 0.59710
 H122 H 1.10433 -0.01698 0.62107
 C123 C 1.03405 -0.07742 0.53589
 H124 H 1.01335 -0.09401 0.51267
 C125 C 1.05863 -0.10192 0.56557
 H126 H 1.05709 -0.13733 0.56488
 N127 N 1.03526 -0.03289 0.53704
 C128 C 1.01194 0.06234 0.43346
 H129 H 0.97670 0.06216 0.43292
 C130 C 1.03500 0.08739 0.40308
 H131 H 1.01751 0.10673 0.37912
 C132 C 1.07789 0.03607 0.46425
 H133 H 1.09446 0.01524 0.48744
 C134 C 1.10222 0.06063 0.43439
 H135 H 1.13748 0.05895 0.43491
 Zn136 Zn 0.99944 0.00148 0.50023
 N137 N 1.03356 0.03742 0.46328
 C138 C 0.96488 0.08027 0.53628
 N139 N 0.96365 0.03575 0.53727
 C140 C 0.93894 0.01401 0.56718
 C141 C 0.91399 0.03714 0.59763
 C142 C 0.94040 0.10468 0.56621
 C143 C 0.98697 -0.05923 0.43339
 C144 C 0.96396 -0.08439 0.40314
 C145 C 0.89669 -0.05792 0.43479
 C146 C 0.92098 -0.03323 0.46452
 N147 N 0.96531 -0.03441 0.46334
 H148 H 0.98554 0.09694 0.51301
 H149 H 0.93921 -0.02138 0.56773
 H150 H 0.89481 0.01955 0.62165
 H151 H 0.94198 0.14009 0.56566
 H152 H 1.02222 -0.05892 0.43269
 H153 H 0.98149 -0.10368 0.37912
 H154 H 0.86143 -0.05642 0.43552
 H155 H 0.90437 -0.01249 0.48782
 C156 C 1.08054 0.08634 0.40341
 C157 C 1.08421 -0.08022 0.59656
 C158 C 0.91842 -0.08356 0.40373
 C159 C 0.91491 0.08288 0.59728
 C160 C 0.16676 0.27797 1.16641
 C161 C 0.14902 0.30784 1.14779
 C162 C 0.12750 0.34187 1.12526
 C163 C 0.10849 0.37011 1.10541
 C164 C -0.16558 0.72071 1.16697
 C165 C -0.14720 0.69086 1.14889
 C166 C -0.12490 0.65686 1.12701
 C167 C -0.10519 0.62866 1.10774
 C168 C -0.16656 0.27793 0.83356
 C169 C -0.14844 0.30778 0.85178
 C170 C -0.12658 0.34177 0.87394
 C171 C -0.10736 0.36997 0.89356
 C172 C 0.16580 0.72117 0.83172
 C173 C 0.14759 0.69121 0.84969
 C174 C 0.12546 0.65708 0.87145
 C175 C 0.10589 0.62878 0.89063
 C176 C 1.16514 0.16833 0.27821
 C177 C 1.14670 0.15055 0.30817
 C178 C 1.12438 0.12896 0.34231
 C179 C 1.10472 0.10988 0.37064
 C180 C 1.16698 -0.16527 0.72085
 C181 C 1.14895 -0.14678 0.69109
 C182 C 1.12712 -0.12436 0.65720
 C183 C 1.10788 -0.10457 0.62909
 C184 C 0.83464 -0.16725 0.27936
 C185 C 0.85275 -0.14893 0.30914
 C186 C 0.87479 -0.12683 0.34306
 C187 C 0.89431 -0.10740 0.37119
 C188 C 0.83280 0.16726 0.72272
 C189 C 0.85068 0.14897 0.69269
 C190 C 0.87233 0.12675 0.65848
 C191 C 0.89141 0.10711 0.63010
 C192 C 0.27857 1.16567 0.16755
 C193 C 0.30847 1.14717 0.14982
 C194 C 0.34254 1.12477 0.12828
 C195 C 0.37081 1.10501 0.10923
 C196 C 0.72082 1.16680 -0.16512
 C197 C 0.69102 1.14881 -0.14679
 C198 C 0.65707 1.12702 -0.12454
 C199 C 0.62891 1.10780 -0.10488
 C200 C 0.27927 0.83454 -0.16767
 C201 C 0.30907 0.85260 -0.14948
 C202 C 0.34300 0.87460 -0.12750
 C203 C 0.37114 0.89409 -0.10817
 C204 C 0.72124 0.83164 0.16594
 C205 C 0.69132 0.84956 0.14773
 C206 C 0.65724 0.87127 0.12560
 C207 C 0.62899 0.89043 0.10603
   
